<?xml version="1.0" encoding="UTF-8"?>

<!-- generated on 2024-05-12 17:03:30 by Eclipse SUMO duarouter Version 1.20.0
<configuration xmlns:xsi="http://www.w3.org/2001/XMLSchema-instance" xsi:noNamespaceSchemaLocation="http://sumo.dlr.de/xsd/duarouterConfiguration.xsd">

    <input>
        <net-file value="/home/nopparuj/Downloads/SMARTS-0.4.17/scenarios/zoo_intersection/shifted_map-AUTOGEN.net.xml"/>
        <route-files value="/tmp/tmp200kvnkh/trips.trips.xml"/>
    </input>

    <output>
        <output-file value="/home/nopparuj/Downloads/SMARTS-0.4.17/scenarios/zoo_intersection/traffic/turns-5.rou.xml"/>
    </output>

    <processing>
        <unsorted-input value="true"/>
        <repair value="true"/>
    </processing>

    <report>
        <error-log value="/home/nopparuj/.smarts/_duarouter_routing/traffic/turns-5.log"/>
        <no-step-log value="true"/>
    </report>

    <random_number>
        <seed value="5"/>
    </random_number>

</configuration>
-->

<routes xmlns:xsi="http://www.w3.org/2001/XMLSchema-instance" xsi:noNamespaceSchemaLocation="http://sumo.dlr.de/xsd/routes_file.xsd">
    <vType id="actor-aggressive_car--2612794900358684212" minGap="2.50" maxSpeed="55.50" speedFactor="normc(1.00,0.20,0.20,2.00)" vClass="passenger" lcCooperative="0.1" lcImpatience="1" accel="2.6" decel="4.5" sigma="0.5"/>
    <vehicle id="aggressive_car-flow-route-edge-east-EW_0_random-edge-south-NS_0_max-2903634612537902547--6702033150438324682--0-2.0" type="actor-aggressive_car--2612794900358684212" depart="0.00" departLane="0" departPos="random" departSpeed="max" arrivalLane="0" arrivalPos="max">
        <route edges="edge-east-EW edge-south-NS"/>
    </vehicle>
    <vehicle id="aggressive_car-flow-route-edge-west-WE_0_random-edge-south-NS_0_max--1669582408076272993--6702033150438324682--1-2.0" type="actor-aggressive_car--2612794900358684212" depart="0.00" departLane="0" departPos="random" departSpeed="max" arrivalLane="0" arrivalPos="max">
        <route edges="edge-west-WE edge-south-NS"/>
    </vehicle>
    <vType id="actor-car--8620974820425496333" minGap="2.50" maxSpeed="55.50" speedFactor="normc(1.00,0.10,0.20,2.00)" vClass="passenger" accel="2.6" decel="4.5" sigma="0.5"/>
    <vehicle id="car-flow-route-edge-east-EW_0_random-edge-south-NS_0_max-2903634612537902547--6702033150438324682--0-1.0" type="actor-car--8620974820425496333" depart="0.00" departLane="0" departPos="random" departSpeed="max" arrivalLane="0" arrivalPos="max">
        <route edges="edge-east-EW edge-south-NS"/>
    </vehicle>
    <vehicle id="car-flow-route-edge-west-WE_0_random-edge-south-NS_0_max--1669582408076272993--6702033150438324682--1-1.0" type="actor-car--8620974820425496333" depart="0.00" departLane="0" departPos="random" departSpeed="max" arrivalLane="0" arrivalPos="max">
        <route edges="edge-west-WE edge-south-NS"/>
    </vehicle>
    <vType id="actor-cooperative_car--2648165611772106857" minGap="2.50" maxSpeed="55.50" speedFactor="normc(1.00,0.20,0.20,2.00)" vClass="passenger" lcCooperative="1" lcImpatience="0.1" accel="2.6" decel="4.5" sigma="0.5"/>
    <vehicle id="cooperative_car-flow-route-edge-east-EW_0_random-edge-south-NS_0_max-2903634612537902547--6702033150438324682--0-0.0" type="actor-cooperative_car--2648165611772106857" depart="0.00" departLane="0" departPos="random" departSpeed="max" arrivalLane="0" arrivalPos="max">
        <route edges="edge-east-EW edge-south-NS"/>
    </vehicle>
    <vehicle id="cooperative_car-flow-route-edge-west-WE_0_random-edge-south-NS_0_max--1669582408076272993--6702033150438324682--1-0.0" type="actor-cooperative_car--2648165611772106857" depart="0.00" departLane="0" departPos="random" departSpeed="max" arrivalLane="0" arrivalPos="max">
        <route edges="edge-west-WE edge-south-NS"/>
    </vehicle>
    <vehicle id="aggressive_car-flow-route-edge-east-EW_0_random-edge-south-NS_0_max-2903634612537902547--6702033150438324682--0-2.1" type="actor-aggressive_car--2612794900358684212" depart="89.89" departLane="0" departPos="random" departSpeed="max" arrivalLane="0" arrivalPos="max">
        <route edges="edge-east-EW edge-south-NS"/>
    </vehicle>
    <vehicle id="cooperative_car-flow-route-edge-east-EW_0_random-edge-south-NS_0_max-2903634612537902547--6702033150438324682--0-0.1" type="actor-cooperative_car--2648165611772106857" depart="115.57" departLane="0" departPos="random" departSpeed="max" arrivalLane="0" arrivalPos="max">
        <route edges="edge-east-EW edge-south-NS"/>
    </vehicle>
    <vehicle id="aggressive_car-flow-route-edge-west-WE_0_random-edge-south-NS_0_max--1669582408076272993--6702033150438324682--1-2.1" type="actor-aggressive_car--2612794900358684212" depart="121.21" departLane="0" departPos="random" departSpeed="max" arrivalLane="0" arrivalPos="max">
        <route edges="edge-west-WE edge-south-NS"/>
    </vehicle>
    <vehicle id="cooperative_car-flow-route-edge-west-WE_0_random-edge-south-NS_0_max--1669582408076272993--6702033150438324682--1-0.1" type="actor-cooperative_car--2648165611772106857" depart="155.84" departLane="0" departPos="random" departSpeed="max" arrivalLane="0" arrivalPos="max">
        <route edges="edge-west-WE edge-south-NS"/>
    </vehicle>
    <vehicle id="aggressive_car-flow-route-edge-east-EW_0_random-edge-south-NS_0_max-2903634612537902547--6702033150438324682--0-2.2" type="actor-aggressive_car--2612794900358684212" depart="179.78" departLane="0" departPos="random" departSpeed="max" arrivalLane="0" arrivalPos="max">
        <route edges="edge-east-EW edge-south-NS"/>
    </vehicle>
    <vehicle id="car-flow-route-edge-east-EW_0_random-edge-south-NS_0_max-2903634612537902547--6702033150438324682--0-1.1" type="actor-car--8620974820425496333" depart="202.25" departLane="0" departPos="random" departSpeed="max" arrivalLane="0" arrivalPos="max">
        <route edges="edge-east-EW edge-south-NS"/>
    </vehicle>
    <vehicle id="cooperative_car-flow-route-edge-east-EW_0_random-edge-south-NS_0_max-2903634612537902547--6702033150438324682--0-0.2" type="actor-cooperative_car--2648165611772106857" depart="231.14" departLane="0" departPos="random" departSpeed="max" arrivalLane="0" arrivalPos="max">
        <route edges="edge-east-EW edge-south-NS"/>
    </vehicle>
    <vehicle id="aggressive_car-flow-route-edge-west-WE_0_random-edge-south-NS_0_max--1669582408076272993--6702033150438324682--1-2.2" type="actor-aggressive_car--2612794900358684212" depart="242.42" departLane="0" departPos="random" departSpeed="max" arrivalLane="0" arrivalPos="max">
        <route edges="edge-west-WE edge-south-NS"/>
    </vehicle>
    <vehicle id="aggressive_car-flow-route-edge-east-EW_0_random-edge-south-NS_0_max-2903634612537902547--6702033150438324682--0-2.3" type="actor-aggressive_car--2612794900358684212" depart="269.66" departLane="0" departPos="random" departSpeed="max" arrivalLane="0" arrivalPos="max">
        <route edges="edge-east-EW edge-south-NS"/>
    </vehicle>
    <vehicle id="car-flow-route-edge-west-WE_0_random-edge-south-NS_0_max--1669582408076272993--6702033150438324682--1-1.1" type="actor-car--8620974820425496333" depart="272.73" departLane="0" departPos="random" departSpeed="max" arrivalLane="0" arrivalPos="max">
        <route edges="edge-west-WE edge-south-NS"/>
    </vehicle>
    <vehicle id="cooperative_car-flow-route-edge-west-WE_0_random-edge-south-NS_0_max--1669582408076272993--6702033150438324682--1-0.2" type="actor-cooperative_car--2648165611772106857" depart="311.69" departLane="0" departPos="random" departSpeed="max" arrivalLane="0" arrivalPos="max">
        <route edges="edge-west-WE edge-south-NS"/>
    </vehicle>
    <vehicle id="cooperative_car-flow-route-edge-east-EW_0_random-edge-south-NS_0_max-2903634612537902547--6702033150438324682--0-0.3" type="actor-cooperative_car--2648165611772106857" depart="346.71" departLane="0" departPos="random" departSpeed="max" arrivalLane="0" arrivalPos="max">
        <route edges="edge-east-EW edge-south-NS"/>
    </vehicle>
    <vehicle id="aggressive_car-flow-route-edge-east-EW_0_random-edge-south-NS_0_max-2903634612537902547--6702033150438324682--0-2.4" type="actor-aggressive_car--2612794900358684212" depart="359.55" departLane="0" departPos="random" departSpeed="max" arrivalLane="0" arrivalPos="max">
        <route edges="edge-east-EW edge-south-NS"/>
    </vehicle>
    <vehicle id="aggressive_car-flow-route-edge-west-WE_0_random-edge-south-NS_0_max--1669582408076272993--6702033150438324682--1-2.3" type="actor-aggressive_car--2612794900358684212" depart="363.64" departLane="0" departPos="random" departSpeed="max" arrivalLane="0" arrivalPos="max">
        <route edges="edge-west-WE edge-south-NS"/>
    </vehicle>
    <vehicle id="car-flow-route-edge-east-EW_0_random-edge-south-NS_0_max-2903634612537902547--6702033150438324682--0-1.2" type="actor-car--8620974820425496333" depart="404.49" departLane="0" departPos="random" departSpeed="max" arrivalLane="0" arrivalPos="max">
        <route edges="edge-east-EW edge-south-NS"/>
    </vehicle>
    <vehicle id="aggressive_car-flow-route-edge-east-EW_0_random-edge-south-NS_0_max-2903634612537902547--6702033150438324682--0-2.5" type="actor-aggressive_car--2612794900358684212" depart="449.44" departLane="0" departPos="random" departSpeed="max" arrivalLane="0" arrivalPos="max">
        <route edges="edge-east-EW edge-south-NS"/>
    </vehicle>
    <vehicle id="cooperative_car-flow-route-edge-east-EW_0_random-edge-south-NS_0_max-2903634612537902547--6702033150438324682--0-0.4" type="actor-cooperative_car--2648165611772106857" depart="462.28" departLane="0" departPos="random" departSpeed="max" arrivalLane="0" arrivalPos="max">
        <route edges="edge-east-EW edge-south-NS"/>
    </vehicle>
    <vehicle id="cooperative_car-flow-route-edge-west-WE_0_random-edge-south-NS_0_max--1669582408076272993--6702033150438324682--1-0.3" type="actor-cooperative_car--2648165611772106857" depart="467.53" departLane="0" departPos="random" departSpeed="max" arrivalLane="0" arrivalPos="max">
        <route edges="edge-west-WE edge-south-NS"/>
    </vehicle>
    <vehicle id="aggressive_car-flow-route-edge-west-WE_0_random-edge-south-NS_0_max--1669582408076272993--6702033150438324682--1-2.4" type="actor-aggressive_car--2612794900358684212" depart="484.85" departLane="0" departPos="random" departSpeed="max" arrivalLane="0" arrivalPos="max">
        <route edges="edge-west-WE edge-south-NS"/>
    </vehicle>
    <vehicle id="aggressive_car-flow-route-edge-east-EW_0_random-edge-south-NS_0_max-2903634612537902547--6702033150438324682--0-2.6" type="actor-aggressive_car--2612794900358684212" depart="539.33" departLane="0" departPos="random" departSpeed="max" arrivalLane="0" arrivalPos="max">
        <route edges="edge-east-EW edge-south-NS"/>
    </vehicle>
    <vehicle id="car-flow-route-edge-west-WE_0_random-edge-south-NS_0_max--1669582408076272993--6702033150438324682--1-1.2" type="actor-car--8620974820425496333" depart="545.45" departLane="0" departPos="random" departSpeed="max" arrivalLane="0" arrivalPos="max">
        <route edges="edge-west-WE edge-south-NS"/>
    </vehicle>
    <vehicle id="cooperative_car-flow-route-edge-east-EW_0_random-edge-south-NS_0_max-2903634612537902547--6702033150438324682--0-0.5" type="actor-cooperative_car--2648165611772106857" depart="577.85" departLane="0" departPos="random" departSpeed="max" arrivalLane="0" arrivalPos="max">
        <route edges="edge-east-EW edge-south-NS"/>
    </vehicle>
    <vehicle id="aggressive_car-flow-route-edge-west-WE_0_random-edge-south-NS_0_max--1669582408076272993--6702033150438324682--1-2.5" type="actor-aggressive_car--2612794900358684212" depart="606.06" departLane="0" departPos="random" departSpeed="max" arrivalLane="0" arrivalPos="max">
        <route edges="edge-west-WE edge-south-NS"/>
    </vehicle>
    <vehicle id="car-flow-route-edge-east-EW_0_random-edge-south-NS_0_max-2903634612537902547--6702033150438324682--0-1.3" type="actor-car--8620974820425496333" depart="606.74" departLane="0" departPos="random" departSpeed="max" arrivalLane="0" arrivalPos="max">
        <route edges="edge-east-EW edge-south-NS"/>
    </vehicle>
    <vehicle id="cooperative_car-flow-route-edge-west-WE_0_random-edge-south-NS_0_max--1669582408076272993--6702033150438324682--1-0.4" type="actor-cooperative_car--2648165611772106857" depart="623.38" departLane="0" departPos="random" departSpeed="max" arrivalLane="0" arrivalPos="max">
        <route edges="edge-west-WE edge-south-NS"/>
    </vehicle>
    <vehicle id="aggressive_car-flow-route-edge-east-EW_0_random-edge-south-NS_0_max-2903634612537902547--6702033150438324682--0-2.7" type="actor-aggressive_car--2612794900358684212" depart="629.22" departLane="0" departPos="random" departSpeed="max" arrivalLane="0" arrivalPos="max">
        <route edges="edge-east-EW edge-south-NS"/>
    </vehicle>
    <vehicle id="cooperative_car-flow-route-edge-east-EW_0_random-edge-south-NS_0_max-2903634612537902547--6702033150438324682--0-0.6" type="actor-cooperative_car--2648165611772106857" depart="693.42" departLane="0" departPos="random" departSpeed="max" arrivalLane="0" arrivalPos="max">
        <route edges="edge-east-EW edge-south-NS"/>
    </vehicle>
    <vehicle id="aggressive_car-flow-route-edge-east-EW_0_random-edge-south-NS_0_max-2903634612537902547--6702033150438324682--0-2.8" type="actor-aggressive_car--2612794900358684212" depart="719.10" departLane="0" departPos="random" departSpeed="max" arrivalLane="0" arrivalPos="max">
        <route edges="edge-east-EW edge-south-NS"/>
    </vehicle>
    <vehicle id="aggressive_car-flow-route-edge-west-WE_0_random-edge-south-NS_0_max--1669582408076272993--6702033150438324682--1-2.6" type="actor-aggressive_car--2612794900358684212" depart="727.27" departLane="0" departPos="random" departSpeed="max" arrivalLane="0" arrivalPos="max">
        <route edges="edge-west-WE edge-south-NS"/>
    </vehicle>
    <vehicle id="cooperative_car-flow-route-edge-west-WE_0_random-edge-south-NS_0_max--1669582408076272993--6702033150438324682--1-0.5" type="actor-cooperative_car--2648165611772106857" depart="779.22" departLane="0" departPos="random" departSpeed="max" arrivalLane="0" arrivalPos="max">
        <route edges="edge-west-WE edge-south-NS"/>
    </vehicle>
    <vehicle id="car-flow-route-edge-east-EW_0_random-edge-south-NS_0_max-2903634612537902547--6702033150438324682--0-1.4" type="actor-car--8620974820425496333" depart="808.99" departLane="0" departPos="random" departSpeed="max" arrivalLane="0" arrivalPos="max">
        <route edges="edge-east-EW edge-south-NS"/>
    </vehicle>
    <vehicle id="cooperative_car-flow-route-edge-east-EW_0_random-edge-south-NS_0_max-2903634612537902547--6702033150438324682--0-0.7" type="actor-cooperative_car--2648165611772106857" depart="808.99" departLane="0" departPos="random" departSpeed="max" arrivalLane="0" arrivalPos="max">
        <route edges="edge-east-EW edge-south-NS"/>
    </vehicle>
    <vehicle id="aggressive_car-flow-route-edge-east-EW_0_random-edge-south-NS_0_max-2903634612537902547--6702033150438324682--0-2.9" type="actor-aggressive_car--2612794900358684212" depart="808.99" departLane="0" departPos="random" departSpeed="max" arrivalLane="0" arrivalPos="max">
        <route edges="edge-east-EW edge-south-NS"/>
    </vehicle>
    <vehicle id="car-flow-route-edge-west-WE_0_random-edge-south-NS_0_max--1669582408076272993--6702033150438324682--1-1.3" type="actor-car--8620974820425496333" depart="818.18" departLane="0" departPos="random" departSpeed="max" arrivalLane="0" arrivalPos="max">
        <route edges="edge-west-WE edge-south-NS"/>
    </vehicle>
    <vehicle id="aggressive_car-flow-route-edge-west-WE_0_random-edge-south-NS_0_max--1669582408076272993--6702033150438324682--1-2.7" type="actor-aggressive_car--2612794900358684212" depart="848.48" departLane="0" departPos="random" departSpeed="max" arrivalLane="0" arrivalPos="max">
        <route edges="edge-west-WE edge-south-NS"/>
    </vehicle>
    <vehicle id="aggressive_car-flow-route-edge-east-EW_0_random-edge-south-NS_0_max-2903634612537902547--6702033150438324682--0-2.10" type="actor-aggressive_car--2612794900358684212" depart="898.88" departLane="0" departPos="random" departSpeed="max" arrivalLane="0" arrivalPos="max">
        <route edges="edge-east-EW edge-south-NS"/>
    </vehicle>
    <vehicle id="cooperative_car-flow-route-edge-east-EW_0_random-edge-south-NS_0_max-2903634612537902547--6702033150438324682--0-0.8" type="actor-cooperative_car--2648165611772106857" depart="924.56" departLane="0" departPos="random" departSpeed="max" arrivalLane="0" arrivalPos="max">
        <route edges="edge-east-EW edge-south-NS"/>
    </vehicle>
    <vehicle id="cooperative_car-flow-route-edge-west-WE_0_random-edge-south-NS_0_max--1669582408076272993--6702033150438324682--1-0.6" type="actor-cooperative_car--2648165611772106857" depart="935.06" departLane="0" departPos="random" departSpeed="max" arrivalLane="0" arrivalPos="max">
        <route edges="edge-west-WE edge-south-NS"/>
    </vehicle>
    <vehicle id="aggressive_car-flow-route-edge-west-WE_0_random-edge-south-NS_0_max--1669582408076272993--6702033150438324682--1-2.8" type="actor-aggressive_car--2612794900358684212" depart="969.70" departLane="0" departPos="random" departSpeed="max" arrivalLane="0" arrivalPos="max">
        <route edges="edge-west-WE edge-south-NS"/>
    </vehicle>
    <vehicle id="aggressive_car-flow-route-edge-east-EW_0_random-edge-south-NS_0_max-2903634612537902547--6702033150438324682--0-2.11" type="actor-aggressive_car--2612794900358684212" depart="988.77" departLane="0" departPos="random" departSpeed="max" arrivalLane="0" arrivalPos="max">
        <route edges="edge-east-EW edge-south-NS"/>
    </vehicle>
    <vehicle id="car-flow-route-edge-east-EW_0_random-edge-south-NS_0_max-2903634612537902547--6702033150438324682--0-1.5" type="actor-car--8620974820425496333" depart="1011.24" departLane="0" departPos="random" departSpeed="max" arrivalLane="0" arrivalPos="max">
        <route edges="edge-east-EW edge-south-NS"/>
    </vehicle>
    <vehicle id="cooperative_car-flow-route-edge-east-EW_0_random-edge-south-NS_0_max-2903634612537902547--6702033150438324682--0-0.9" type="actor-cooperative_car--2648165611772106857" depart="1040.13" departLane="0" departPos="random" departSpeed="max" arrivalLane="0" arrivalPos="max">
        <route edges="edge-east-EW edge-south-NS"/>
    </vehicle>
    <vehicle id="aggressive_car-flow-route-edge-east-EW_0_random-edge-south-NS_0_max-2903634612537902547--6702033150438324682--0-2.12" type="actor-aggressive_car--2612794900358684212" depart="1078.66" departLane="0" departPos="random" departSpeed="max" arrivalLane="0" arrivalPos="max">
        <route edges="edge-east-EW edge-south-NS"/>
    </vehicle>
    <vehicle id="aggressive_car-flow-route-edge-west-WE_0_random-edge-south-NS_0_max--1669582408076272993--6702033150438324682--1-2.9" type="actor-aggressive_car--2612794900358684212" depart="1090.91" departLane="0" departPos="random" departSpeed="max" arrivalLane="0" arrivalPos="max">
        <route edges="edge-west-WE edge-south-NS"/>
    </vehicle>
    <vehicle id="car-flow-route-edge-west-WE_0_random-edge-south-NS_0_max--1669582408076272993--6702033150438324682--1-1.4" type="actor-car--8620974820425496333" depart="1090.91" departLane="0" departPos="random" departSpeed="max" arrivalLane="0" arrivalPos="max">
        <route edges="edge-west-WE edge-south-NS"/>
    </vehicle>
    <vehicle id="cooperative_car-flow-route-edge-west-WE_0_random-edge-south-NS_0_max--1669582408076272993--6702033150438324682--1-0.7" type="actor-cooperative_car--2648165611772106857" depart="1090.91" departLane="0" departPos="random" departSpeed="max" arrivalLane="0" arrivalPos="max">
        <route edges="edge-west-WE edge-south-NS"/>
    </vehicle>
    <vehicle id="cooperative_car-flow-route-edge-east-EW_0_random-edge-south-NS_0_max-2903634612537902547--6702033150438324682--0-0.10" type="actor-cooperative_car--2648165611772106857" depart="1155.70" departLane="0" departPos="random" departSpeed="max" arrivalLane="0" arrivalPos="max">
        <route edges="edge-east-EW edge-south-NS"/>
    </vehicle>
    <vehicle id="aggressive_car-flow-route-edge-east-EW_0_random-edge-south-NS_0_max-2903634612537902547--6702033150438324682--0-2.13" type="actor-aggressive_car--2612794900358684212" depart="1168.54" departLane="0" departPos="random" departSpeed="max" arrivalLane="0" arrivalPos="max">
        <route edges="edge-east-EW edge-south-NS"/>
    </vehicle>
    <vehicle id="aggressive_car-flow-route-edge-west-WE_0_random-edge-south-NS_0_max--1669582408076272993--6702033150438324682--1-2.10" type="actor-aggressive_car--2612794900358684212" depart="1212.12" departLane="0" departPos="random" departSpeed="max" arrivalLane="0" arrivalPos="max">
        <route edges="edge-west-WE edge-south-NS"/>
    </vehicle>
    <vehicle id="car-flow-route-edge-east-EW_0_random-edge-south-NS_0_max-2903634612537902547--6702033150438324682--0-1.6" type="actor-car--8620974820425496333" depart="1213.48" departLane="0" departPos="random" departSpeed="max" arrivalLane="0" arrivalPos="max">
        <route edges="edge-east-EW edge-south-NS"/>
    </vehicle>
    <vehicle id="cooperative_car-flow-route-edge-west-WE_0_random-edge-south-NS_0_max--1669582408076272993--6702033150438324682--1-0.8" type="actor-cooperative_car--2648165611772106857" depart="1246.75" departLane="0" departPos="random" departSpeed="max" arrivalLane="0" arrivalPos="max">
        <route edges="edge-west-WE edge-south-NS"/>
    </vehicle>
    <vehicle id="aggressive_car-flow-route-edge-east-EW_0_random-edge-south-NS_0_max-2903634612537902547--6702033150438324682--0-2.14" type="actor-aggressive_car--2612794900358684212" depart="1258.43" departLane="0" departPos="random" departSpeed="max" arrivalLane="0" arrivalPos="max">
        <route edges="edge-east-EW edge-south-NS"/>
    </vehicle>
    <vehicle id="cooperative_car-flow-route-edge-east-EW_0_random-edge-south-NS_0_max-2903634612537902547--6702033150438324682--0-0.11" type="actor-cooperative_car--2648165611772106857" depart="1271.27" departLane="0" departPos="random" departSpeed="max" arrivalLane="0" arrivalPos="max">
        <route edges="edge-east-EW edge-south-NS"/>
    </vehicle>
    <vehicle id="aggressive_car-flow-route-edge-west-WE_0_random-edge-south-NS_0_max--1669582408076272993--6702033150438324682--1-2.11" type="actor-aggressive_car--2612794900358684212" depart="1333.33" departLane="0" departPos="random" departSpeed="max" arrivalLane="0" arrivalPos="max">
        <route edges="edge-west-WE edge-south-NS"/>
    </vehicle>
    <vehicle id="aggressive_car-flow-route-edge-east-EW_0_random-edge-south-NS_0_max-2903634612537902547--6702033150438324682--0-2.15" type="actor-aggressive_car--2612794900358684212" depart="1348.32" departLane="0" departPos="random" departSpeed="max" arrivalLane="0" arrivalPos="max">
        <route edges="edge-east-EW edge-south-NS"/>
    </vehicle>
    <vehicle id="car-flow-route-edge-west-WE_0_random-edge-south-NS_0_max--1669582408076272993--6702033150438324682--1-1.5" type="actor-car--8620974820425496333" depart="1363.64" departLane="0" departPos="random" departSpeed="max" arrivalLane="0" arrivalPos="max">
        <route edges="edge-west-WE edge-south-NS"/>
    </vehicle>
    <vehicle id="cooperative_car-flow-route-edge-east-EW_0_random-edge-south-NS_0_max-2903634612537902547--6702033150438324682--0-0.12" type="actor-cooperative_car--2648165611772106857" depart="1386.84" departLane="0" departPos="random" departSpeed="max" arrivalLane="0" arrivalPos="max">
        <route edges="edge-east-EW edge-south-NS"/>
    </vehicle>
    <vehicle id="cooperative_car-flow-route-edge-west-WE_0_random-edge-south-NS_0_max--1669582408076272993--6702033150438324682--1-0.9" type="actor-cooperative_car--2648165611772106857" depart="1402.60" departLane="0" departPos="random" departSpeed="max" arrivalLane="0" arrivalPos="max">
        <route edges="edge-west-WE edge-south-NS"/>
    </vehicle>
    <vehicle id="car-flow-route-edge-east-EW_0_random-edge-south-NS_0_max-2903634612537902547--6702033150438324682--0-1.7" type="actor-car--8620974820425496333" depart="1415.73" departLane="0" departPos="random" departSpeed="max" arrivalLane="0" arrivalPos="max">
        <route edges="edge-east-EW edge-south-NS"/>
    </vehicle>
    <vehicle id="aggressive_car-flow-route-edge-east-EW_0_random-edge-south-NS_0_max-2903634612537902547--6702033150438324682--0-2.16" type="actor-aggressive_car--2612794900358684212" depart="1438.21" departLane="0" departPos="random" departSpeed="max" arrivalLane="0" arrivalPos="max">
        <route edges="edge-east-EW edge-south-NS"/>
    </vehicle>
    <vehicle id="aggressive_car-flow-route-edge-west-WE_0_random-edge-south-NS_0_max--1669582408076272993--6702033150438324682--1-2.12" type="actor-aggressive_car--2612794900358684212" depart="1454.54" departLane="0" departPos="random" departSpeed="max" arrivalLane="0" arrivalPos="max">
        <route edges="edge-west-WE edge-south-NS"/>
    </vehicle>
    <vehicle id="cooperative_car-flow-route-edge-east-EW_0_random-edge-south-NS_0_max-2903634612537902547--6702033150438324682--0-0.13" type="actor-cooperative_car--2648165611772106857" depart="1502.41" departLane="0" departPos="random" departSpeed="max" arrivalLane="0" arrivalPos="max">
        <route edges="edge-east-EW edge-south-NS"/>
    </vehicle>
    <vehicle id="aggressive_car-flow-route-edge-east-EW_0_random-edge-south-NS_0_max-2903634612537902547--6702033150438324682--0-2.17" type="actor-aggressive_car--2612794900358684212" depart="1528.10" departLane="0" departPos="random" departSpeed="max" arrivalLane="0" arrivalPos="max">
        <route edges="edge-east-EW edge-south-NS"/>
    </vehicle>
    <vehicle id="cooperative_car-flow-route-edge-west-WE_0_random-edge-south-NS_0_max--1669582408076272993--6702033150438324682--1-0.10" type="actor-cooperative_car--2648165611772106857" depart="1558.44" departLane="0" departPos="random" departSpeed="max" arrivalLane="0" arrivalPos="max">
        <route edges="edge-west-WE edge-south-NS"/>
    </vehicle>
    <vehicle id="aggressive_car-flow-route-edge-west-WE_0_random-edge-south-NS_0_max--1669582408076272993--6702033150438324682--1-2.13" type="actor-aggressive_car--2612794900358684212" depart="1575.76" departLane="0" departPos="random" departSpeed="max" arrivalLane="0" arrivalPos="max">
        <route edges="edge-west-WE edge-south-NS"/>
    </vehicle>
    <vehicle id="car-flow-route-edge-east-EW_0_random-edge-south-NS_0_max-2903634612537902547--6702033150438324682--0-1.8" type="actor-car--8620974820425496333" depart="1617.98" departLane="0" departPos="random" departSpeed="max" arrivalLane="0" arrivalPos="max">
        <route edges="edge-east-EW edge-south-NS"/>
    </vehicle>
    <vehicle id="cooperative_car-flow-route-edge-east-EW_0_random-edge-south-NS_0_max-2903634612537902547--6702033150438324682--0-0.14" type="actor-cooperative_car--2648165611772106857" depart="1617.98" departLane="0" departPos="random" departSpeed="max" arrivalLane="0" arrivalPos="max">
        <route edges="edge-east-EW edge-south-NS"/>
    </vehicle>
    <vehicle id="aggressive_car-flow-route-edge-east-EW_0_random-edge-south-NS_0_max-2903634612537902547--6702033150438324682--0-2.18" type="actor-aggressive_car--2612794900358684212" depart="1617.98" departLane="0" departPos="random" departSpeed="max" arrivalLane="0" arrivalPos="max">
        <route edges="edge-east-EW edge-south-NS"/>
    </vehicle>
    <vehicle id="car-flow-route-edge-west-WE_0_random-edge-south-NS_0_max--1669582408076272993--6702033150438324682--1-1.6" type="actor-car--8620974820425496333" depart="1636.36" departLane="0" departPos="random" departSpeed="max" arrivalLane="0" arrivalPos="max">
        <route edges="edge-west-WE edge-south-NS"/>
    </vehicle>
    <vehicle id="aggressive_car-flow-route-edge-west-WE_0_random-edge-south-NS_0_max--1669582408076272993--6702033150438324682--1-2.14" type="actor-aggressive_car--2612794900358684212" depart="1696.97" departLane="0" departPos="random" departSpeed="max" arrivalLane="0" arrivalPos="max">
        <route edges="edge-west-WE edge-south-NS"/>
    </vehicle>
    <vehicle id="aggressive_car-flow-route-edge-east-EW_0_random-edge-south-NS_0_max-2903634612537902547--6702033150438324682--0-2.19" type="actor-aggressive_car--2612794900358684212" depart="1707.87" departLane="0" departPos="random" departSpeed="max" arrivalLane="0" arrivalPos="max">
        <route edges="edge-east-EW edge-south-NS"/>
    </vehicle>
    <vehicle id="cooperative_car-flow-route-edge-west-WE_0_random-edge-south-NS_0_max--1669582408076272993--6702033150438324682--1-0.11" type="actor-cooperative_car--2648165611772106857" depart="1714.28" departLane="0" departPos="random" departSpeed="max" arrivalLane="0" arrivalPos="max">
        <route edges="edge-west-WE edge-south-NS"/>
    </vehicle>
    <vehicle id="cooperative_car-flow-route-edge-east-EW_0_random-edge-south-NS_0_max-2903634612537902547--6702033150438324682--0-0.15" type="actor-cooperative_car--2648165611772106857" depart="1733.55" departLane="0" departPos="random" departSpeed="max" arrivalLane="0" arrivalPos="max">
        <route edges="edge-east-EW edge-south-NS"/>
    </vehicle>
    <vehicle id="aggressive_car-flow-route-edge-east-EW_0_random-edge-south-NS_0_max-2903634612537902547--6702033150438324682--0-2.20" type="actor-aggressive_car--2612794900358684212" depart="1797.76" departLane="0" departPos="random" departSpeed="max" arrivalLane="0" arrivalPos="max">
        <route edges="edge-east-EW edge-south-NS"/>
    </vehicle>
    <vehicle id="aggressive_car-flow-route-edge-west-WE_0_random-edge-south-NS_0_max--1669582408076272993--6702033150438324682--1-2.15" type="actor-aggressive_car--2612794900358684212" depart="1818.18" departLane="0" departPos="random" departSpeed="max" arrivalLane="0" arrivalPos="max">